27
Lattice="0.0 2.25525 2.25525 2.25525 0.0 2.25525 2.25525 2.25525 0.0" Properties=species:S:1:pos:R:3:forces:R:3:stresses:R:6:energies:R:1 energy=-68.9597965555255 stress="-40.912220625279616 6.560008562178378 5.1399104914706 6.560008562178378 -31.440511804799577 2.0609498126021477 5.1399104914706 2.0609498126021477 -38.29411336824368" free_energy=-68.9597965555255 pbc="T T T"
Ne      -0.01669929       0.02824128       0.07663939      54.97940416      11.10584857     -25.48296181      -1.21987602      -1.16831153      -1.01270390      -0.01195979      -0.23671743      -0.36908780      -4.74480367
Ne       0.68932978       0.80376228       0.01868290     164.29116208     -17.33706812     197.41673522      -1.98283100      -0.81386748      -3.43651519      -0.06658552      -1.87764730      -0.19184994       0.47572214
Ne       1.58066890       1.58528038       0.03235003      11.66274335     -48.70360756      27.69438543      -1.38414347      -0.93009747      -1.13641932      -0.04732934      -0.20252210      -0.35817608      -4.49803034
Ne       0.73711341      -0.00516154       0.74976558      24.25136251      48.45722112      30.09821153      -0.95248120      -0.70906361      -0.84679727      -0.37180084       0.29123990      -0.07254714      -5.40555599
Ne       1.49246309       0.80108820       0.81439782      30.11425902     -20.17375990     -18.44619980      -0.27897291      -0.47615783      -0.28832687      -0.20335307       0.22240066       0.23890357      -6.85821614
Ne       2.27922374       1.56547346       0.79206340       8.02001655     -38.43446912       4.04914604      -0.59343452      -0.46328185      -0.62621136      -0.00365016       0.26193749      -0.32402721      -6.41521896
Ne       1.63425845      -0.00791462       1.54006399    -134.88880473      97.62543024      67.93944414      -1.82691577      -1.41567981      -1.76991597      -0.13859741       0.68408237       0.48692883      -1.66063207
Ne       2.39355272       0.76405735       1.60389904    -334.31672524     189.48136066    -131.44637477      -4.06788576      -2.69354522      -2.93491631      -0.98841441      -1.75826759       2.01722356       6.71317003
Ne       3.11372877       1.51417300       1.63473005     -94.58467620      75.07325851     -46.24955138      -1.66606517      -1.61413297      -0.92247595       0.02934383       0.09010689       0.73248621      -3.13043283
Ne      -0.01144391       0.78472915       0.75024099      71.02388731      27.38965040      75.22718179      -1.31358988      -0.49114856      -0.97554701      -0.15215174      -0.53914795      -0.29548717      -5.05246387
Ne       0.84051400       1.54767522       0.70152239     -35.17631449     -36.29458947      77.93792570      -0.43674554      -1.19742828      -0.97208246       0.73333398       0.00975800       0.20144680      -4.87985046
Ne       1.51885987       2.35832801       0.77322849      13.03476146    -213.19047195     201.93172183      -0.98223607      -3.28934157      -2.73398034       2.40984268       0.08675944       0.06300194       1.38095744
Ne       0.79717581       0.75866100       1.53143623       7.37919478      18.01096426      11.37013597      -0.33150312      -0.06108598      -0.13878799      -0.01724959       0.40317942      -0.30016705      -7.31108732
Ne       1.56672036       1.57298148       1.48013264     -22.83058450       3.75740964      34.99884348      -0.21091184      -0.01453717      -0.38245287      -0.13895656       0.13572986      -0.11025202      -7.09432106
Ne       2.38029157       2.27446757       1.53970553     -40.37123560       1.57932155      13.88917662      -0.35741056      -0.35768284      -0.43046909      -0.07681499       0.11458424      -0.29884087      -6.77089884
Ne       1.51131076       0.72673324       2.43174456     361.33858316      99.16966380    -604.56404610      -6.75854988      -2.93497213      -6.92069005       1.17722836       4.12766131       1.32550567      18.27146005
Ne       2.22615441       1.55290466       2.30869547      -3.11759153       7.99450038       2.49494998      -0.20870849      -0.30835744      -0.12729752       0.14813248      -0.03834314       0.17327078      -7.77631071
Ne       3.05419597       2.23206282       2.32837694     -25.29288460      76.16785482     -45.25481347      -0.50706541      -1.36823187      -1.12042307       0.51549955      -0.39214296       0.10835538      -4.76069885
Ne       0.02843498       1.58311525       1.48627894      88.44029219     -94.46625644      39.46163799      -1.06869094      -1.57028595      -0.47724160       0.47354665      -0.05849149       0.65058795      -4.20974925
Ne       0.75468040       2.42704577       1.48256142     251.41514674    -189.05501019      26.66798754      -3.58874752      -2.26808575      -0.98832461      -0.71907630      -0.37743375       2.12803609       2.16055819
Ne       1.53086282       3.14717962       1.54972108      69.31882167    -107.64891069      11.80025717      -1.14898214      -1.36755714      -0.49021530       0.00237917       0.07626992       0.71633178      -4.47729941
Ne       0.81450576       1.55883061       2.32253555      -9.09895809      17.67085427     -81.26765777      -0.19918308      -1.17925470      -0.86637482       0.17823945      -0.07837790      -0.12504999      -5.35901702
Ne       1.50846943       2.31305563       2.33997970      17.73145663      16.33003231     -24.10839079      -0.16644714      -0.21975920      -0.03165314      -0.05115929       0.18182612      -0.06697501      -7.50187958
Ne       2.35892080       3.05618417       2.30849111     -25.03949086      -8.12886412      -2.15920262      -0.15713946      -0.02832211      -0.05766733      -0.11348214      -0.00892182      -0.06993954      -7.88248788
Ne       1.50087169       1.58697574       3.10930465      38.28529298      22.75171094     -56.26626942      -1.09985907      -1.60721655      -1.36163992      -0.19715946      -0.36959805      -0.50608527      -3.73473855
Ne       2.29920252       2.33827266       3.16319288      -6.66933983      19.37462685    -190.43433853      -1.99524569      -0.92395755      -2.25018632       0.23067609      -0.09300656      -0.31698601      -0.91749588
Ne       3.16022187       3.11844330       2.95978394    -479.89977892      41.49329923     402.70206601      -6.40859898      -1.96914922      -4.99479778      -0.53953180       4.48499293       1.12340110      12.47952429
