8
Lattice="0.0 1.5965 1.5965 1.5965 0.0 1.5965 1.5965 1.5965 0.0" Properties=species:S:1:pos:R:3:forces:R:3:stresses:R:6:energies:R:1 energy=-43.759894669345144 stress="-3.201916810975012 0.29406709323898705 3.2026141762600258 0.29406709323898705 -9.097446827740129 1.90506228232953 3.2026141762600258 1.90506228232953 -9.743339683867779" free_energy=-43.759894669345144 pbc="T T T"
Ne       0.04058480       0.09126595      -0.03071257     -42.73624733     -22.84316700     -15.24404304      -1.01188773      -0.60966321      -1.39369611      -0.88113869       0.39971752       0.23005124      -5.43065650
Ne       0.84401168       0.73955699      -0.04612592     -13.64262144      40.21779181     -10.53092141      -0.54943003      -0.70316335      -0.22459008       0.19703542      -0.36125295       0.09147522      -6.21843802
Ne       0.75489945       0.00557997       0.69234681     -26.37626740      -8.73187351      51.70928877      -1.43880551       0.29204088      -1.02774280       0.26462880       0.79575788       0.00876944      -5.85529620
Ne       1.56367502       0.73959012       0.69718361       9.83289019      38.34483064      40.48129055       0.14941587      -0.82528508      -0.90806424      -1.06849542      -0.26050226      -0.20688200      -6.03634086
Ne      -0.09588353       0.75715546       0.68790652      -0.29673399       7.36410010      29.79276519       0.62610437      -0.71233919      -0.64057040      -0.38931836       0.26668343       0.20809658      -6.42530970
Ne       0.76300829       1.51683526       0.89250759      21.77607525      54.33003768     -85.37514347      -0.07688394      -2.29579260      -2.23980646       2.03587356       0.89525037      -0.21800973      -4.39714468
Ne       0.67270997       0.82980574       1.50848467       1.61535248     -73.65229244      50.81114627       0.44631884      -2.26595102      -1.75224126       2.39064871       0.49637319      -0.25266586      -4.92698033
Ne       1.50970691       1.58267100       1.68423721      49.82755225     -35.02942728     -61.64438287      -1.34674869      -1.97729325      -1.55662835      -0.64417173       0.97058699       0.43323221      -4.46972837
