16
Lattice="10.700000000000001 0.0 0.0 0.0 10.700000000000001 0.0 0.0 0.0 10.700000000000001" Properties=species:S:1:pos:R:3:forces:R:3:stresses:R:6:energies:R:1 energy=-0.13004939270113472 stress="0.0 0.0 0.0 0.0 0.0 0.0 0.0 0.0 0.0009550557193371983" free_energy=-0.13004939270113472 pbc="T T T"
Na       0.00000000       0.00000000       0.00000000       0.00000000       0.00000000       0.03899948       0.00000000       0.00000000       0.00003979       0.00000000       0.00000000       0.00000000      -0.00541872
Cl       0.00000000       0.00000000       2.50000000       0.00000000       0.00000000       0.00000000       0.00000000       0.00000000       0.00007959       0.00000000       0.00000000       0.00000000      -0.01083745
Na       0.00000000       0.00000000       5.00000000       0.00000000       0.00000000       0.00000000       0.00000000       0.00000000       0.00007959       0.00000000       0.00000000       0.00000000      -0.01083745
Cl       0.00000000       0.00000000       7.50000000       0.00000000       0.00000000      -0.03899948       0.00000000       0.00000000       0.00003979       0.00000000       0.00000000       0.00000000      -0.00541872
Na       0.00000000       5.00000000       0.00000000       0.00000000       0.00000000       0.03899948       0.00000000       0.00000000       0.00003979       0.00000000       0.00000000       0.00000000      -0.00541872
Cl       0.00000000       5.00000000       2.50000000       0.00000000       0.00000000       0.00000000       0.00000000       0.00000000       0.00007959       0.00000000       0.00000000       0.00000000      -0.01083745
Na       0.00000000       5.00000000       5.00000000       0.00000000       0.00000000       0.00000000       0.00000000       0.00000000       0.00007959       0.00000000       0.00000000       0.00000000      -0.01083745
Cl       0.00000000       5.00000000       7.50000000       0.00000000       0.00000000      -0.03899948       0.00000000       0.00000000       0.00003979       0.00000000       0.00000000       0.00000000      -0.00541872
Na       5.00000000       0.00000000       0.00000000       0.00000000       0.00000000       0.03899948       0.00000000       0.00000000       0.00003979       0.00000000       0.00000000       0.00000000      -0.00541872
Cl       5.00000000       0.00000000       2.50000000       0.00000000       0.00000000       0.00000000       0.00000000       0.00000000       0.00007959       0.00000000       0.00000000       0.00000000      -0.01083745
Na       5.00000000       0.00000000       5.00000000       0.00000000       0.00000000       0.00000000       0.00000000       0.00000000       0.00007959       0.00000000       0.00000000       0.00000000      -0.01083745
Cl       5.00000000       0.00000000       7.50000000       0.00000000       0.00000000      -0.03899948       0.00000000       0.00000000       0.00003979       0.00000000       0.00000000       0.00000000      -0.00541872
Na       5.00000000       5.00000000       0.00000000       0.00000000       0.00000000       0.03899948       0.00000000       0.00000000       0.00003979       0.00000000       0.00000000       0.00000000      -0.00541872
Cl       5.00000000       5.00000000       2.50000000       0.00000000       0.00000000       0.00000000       0.00000000       0.00000000       0.00007959       0.00000000       0.00000000       0.00000000      -0.01083745
Na       5.00000000       5.00000000       5.00000000       0.00000000       0.00000000       0.00000000       0.00000000       0.00000000       0.00007959       0.00000000       0.00000000       0.00000000      -0.01083745
Cl       5.00000000       5.00000000       7.50000000       0.00000000       0.00000000      -0.03899948       0.00000000       0.00000000       0.00003979       0.00000000       0.00000000       0.00000000      -0.00541872
