16
Lattice="9.4 0.0 0.0 0.0 9.4 0.0 0.0 0.0 9.4" Properties=species:S:1:pos:R:3:forces:R:3:stresses:R:6:energies:R:1 energy=-0.4409961854185774 stress="0.0 0.0 0.0 0.0 0.0 0.0 0.0 0.0 0.0037609655699087177" free_energy=-0.4409961854185774 pbc="T T T"
Na       0.00000000       0.00000000       0.00000000       0.00000000       0.00000000      -0.21808125       0.00000000       0.00000000       0.00035273       0.00000000       0.00000000       0.00000000      -0.04428707
Cl       0.00000000       0.00000000       2.50000000       0.00000000       0.00000000       0.00000000       0.00000000       0.00000000       0.00011739       0.00000000       0.00000000       0.00000000      -0.01083745
Na       0.00000000       0.00000000       5.00000000       0.00000000       0.00000000       0.00000000       0.00000000       0.00000000       0.00011739       0.00000000       0.00000000       0.00000000      -0.01083745
Cl       0.00000000       0.00000000       7.50000000       0.00000000       0.00000000       0.21808125       0.00000000       0.00000000       0.00035273       0.00000000       0.00000000       0.00000000      -0.04428707
Na       0.00000000       5.00000000       0.00000000       0.00000000       0.00000000      -0.21808125       0.00000000       0.00000000       0.00035273       0.00000000       0.00000000       0.00000000      -0.04428707
Cl       0.00000000       5.00000000       2.50000000       0.00000000       0.00000000       0.00000000       0.00000000       0.00000000       0.00011739       0.00000000       0.00000000       0.00000000      -0.01083745
Na       0.00000000       5.00000000       5.00000000       0.00000000       0.00000000       0.00000000       0.00000000       0.00000000       0.00011739       0.00000000       0.00000000       0.00000000      -0.01083745
Cl       0.00000000       5.00000000       7.50000000       0.00000000       0.00000000       0.21808125       0.00000000       0.00000000       0.00035273       0.00000000       0.00000000       0.00000000      -0.04428707
Na       5.00000000       0.00000000       0.00000000       0.00000000       0.00000000      -0.21808125       0.00000000       0.00000000       0.00035273       0.00000000       0.00000000       0.00000000      -0.04428707
Cl       5.00000000       0.00000000       2.50000000       0.00000000       0.00000000       0.00000000       0.00000000       0.00000000       0.00011739       0.00000000       0.00000000       0.00000000      -0.01083745
Na       5.00000000       0.00000000       5.00000000       0.00000000       0.00000000       0.00000000       0.00000000       0.00000000       0.00011739       0.00000000       0.00000000       0.00000000      -0.01083745
Cl       5.00000000       0.00000000       7.50000000       0.00000000       0.00000000       0.21808125       0.00000000       0.00000000       0.00035273       0.00000000       0.00000000       0.00000000      -0.04428707
Na       5.00000000       5.00000000       0.00000000       0.00000000       0.00000000      -0.21808125       0.00000000       0.00000000       0.00035273       0.00000000       0.00000000       0.00000000      -0.04428707
Cl       5.00000000       5.00000000       2.50000000       0.00000000       0.00000000       0.00000000       0.00000000       0.00000000       0.00011739       0.00000000       0.00000000       0.00000000      -0.01083745
Na       5.00000000       5.00000000       5.00000000       0.00000000       0.00000000       0.00000000       0.00000000       0.00000000       0.00011739       0.00000000       0.00000000       0.00000000      -0.01083745
Cl       5.00000000       5.00000000       7.50000000       0.00000000       0.00000000       0.21808125       0.00000000       0.00000000       0.00035273       0.00000000       0.00000000       0.00000000      -0.04428707
