16
Lattice="9.700000000000001 0.0 0.0 0.0 9.700000000000001 0.0 0.0 0.0 9.700000000000001" Properties=species:S:1:pos:R:3:forces:R:3:stresses:R:6:energies:R:1 energy=-0.2480054566059425 stress="0.0 0.0 0.0 0.0 0.0 0.0 0.0 0.0 0.0021932931061667115" free_energy=-0.2480054566059425 pbc="T T T"
Na       0.00000000       0.00000000       0.00000000       0.00000000       0.00000000      -0.05552042       0.00000000       0.00000000       0.00016733       0.00000000       0.00000000       0.00000000      -0.02016323
Cl       0.00000000       0.00000000       2.50000000       0.00000000       0.00000000       0.00000000       0.00000000       0.00000000       0.00010683       0.00000000       0.00000000       0.00000000      -0.01083745
Na       0.00000000       0.00000000       5.00000000       0.00000000       0.00000000       0.00000000       0.00000000       0.00000000       0.00010683       0.00000000       0.00000000       0.00000000      -0.01083745
Cl       0.00000000       0.00000000       7.50000000       0.00000000       0.00000000       0.05552042       0.00000000       0.00000000       0.00016733       0.00000000       0.00000000       0.00000000      -0.02016323
Na       0.00000000       5.00000000       0.00000000       0.00000000       0.00000000      -0.05552042       0.00000000       0.00000000       0.00016733       0.00000000       0.00000000       0.00000000      -0.02016323
Cl       0.00000000       5.00000000       2.50000000       0.00000000       0.00000000       0.00000000       0.00000000       0.00000000       0.00010683       0.00000000       0.00000000       0.00000000      -0.01083745
Na       0.00000000       5.00000000       5.00000000       0.00000000       0.00000000       0.00000000       0.00000000       0.00000000       0.00010683       0.00000000       0.00000000       0.00000000      -0.01083745
Cl       0.00000000       5.00000000       7.50000000       0.00000000       0.00000000       0.05552042       0.00000000       0.00000000       0.00016733       0.00000000       0.00000000       0.00000000      -0.02016323
Na       5.00000000       0.00000000       0.00000000       0.00000000       0.00000000      -0.05552042       0.00000000       0.00000000       0.00016733       0.00000000       0.00000000       0.00000000      -0.02016323
Cl       5.00000000       0.00000000       2.50000000       0.00000000       0.00000000       0.00000000       0.00000000       0.00000000       0.00010683       0.00000000       0.00000000       0.00000000      -0.01083745
Na       5.00000000       0.00000000       5.00000000       0.00000000       0.00000000       0.00000000       0.00000000       0.00000000       0.00010683       0.00000000       0.00000000       0.00000000      -0.01083745
Cl       5.00000000       0.00000000       7.50000000       0.00000000       0.00000000       0.05552042       0.00000000       0.00000000       0.00016733       0.00000000       0.00000000       0.00000000      -0.02016323
Na       5.00000000       5.00000000       0.00000000       0.00000000       0.00000000      -0.05552042       0.00000000       0.00000000       0.00016733       0.00000000       0.00000000       0.00000000      -0.02016323
Cl       5.00000000       5.00000000       2.50000000       0.00000000       0.00000000       0.00000000       0.00000000       0.00000000       0.00010683       0.00000000       0.00000000       0.00000000      -0.01083745
Na       5.00000000       5.00000000       5.00000000       0.00000000       0.00000000       0.00000000       0.00000000       0.00000000       0.00010683       0.00000000       0.00000000       0.00000000      -0.01083745
Cl       5.00000000       5.00000000       7.50000000       0.00000000       0.00000000       0.05552042       0.00000000       0.00000000       0.00016733       0.00000000       0.00000000       0.00000000      -0.02016323
