16
Lattice="9.8 0.0 0.0 0.0 9.8 0.0 0.0 0.0 9.8" Properties=species:S:1:pos:R:3:forces:R:3:stresses:R:6:energies:R:1 energy=-0.21548341864665177 stress="0.0 0.0 0.0 0.0 0.0 0.0 0.0 0.0 0.001922789871552598" free_energy=-0.21548341864665177 pbc="T T T"
Na       0.00000000       0.00000000       0.00000000       0.00000000       0.00000000      -0.03053641       0.00000000       0.00000000       0.00013676       0.00000000       0.00000000       0.00000000      -0.01609798
Cl       0.00000000       0.00000000       2.50000000       0.00000000       0.00000000       0.00000000       0.00000000       0.00000000       0.00010359       0.00000000       0.00000000       0.00000000      -0.01083745
Na       0.00000000       0.00000000       5.00000000       0.00000000       0.00000000       0.00000000       0.00000000       0.00000000       0.00010359       0.00000000       0.00000000       0.00000000      -0.01083745
Cl       0.00000000       0.00000000       7.50000000       0.00000000       0.00000000       0.03053641       0.00000000       0.00000000       0.00013676       0.00000000       0.00000000       0.00000000      -0.01609798
Na       0.00000000       5.00000000       0.00000000       0.00000000       0.00000000      -0.03053641       0.00000000       0.00000000       0.00013676       0.00000000       0.00000000       0.00000000      -0.01609798
Cl       0.00000000       5.00000000       2.50000000       0.00000000       0.00000000       0.00000000       0.00000000       0.00000000       0.00010359       0.00000000       0.00000000       0.00000000      -0.01083745
Na       0.00000000       5.00000000       5.00000000       0.00000000       0.00000000       0.00000000       0.00000000       0.00000000       0.00010359       0.00000000       0.00000000       0.00000000      -0.01083745
Cl       0.00000000       5.00000000       7.50000000       0.00000000       0.00000000       0.03053641       0.00000000       0.00000000       0.00013676       0.00000000       0.00000000       0.00000000      -0.01609798
Na       5.00000000       0.00000000       0.00000000       0.00000000       0.00000000      -0.03053641       0.00000000       0.00000000       0.00013676       0.00000000       0.00000000       0.00000000      -0.01609798
Cl       5.00000000       0.00000000       2.50000000       0.00000000       0.00000000       0.00000000       0.00000000       0.00000000       0.00010359       0.00000000       0.00000000       0.00000000      -0.01083745
Na       5.00000000       0.00000000       5.00000000       0.00000000       0.00000000       0.00000000       0.00000000       0.00000000       0.00010359       0.00000000       0.00000000       0.00000000      -0.01083745
Cl       5.00000000       0.00000000       7.50000000       0.00000000       0.00000000       0.03053641       0.00000000       0.00000000       0.00013676       0.00000000       0.00000000       0.00000000      -0.01609798
Na       5.00000000       5.00000000       0.00000000       0.00000000       0.00000000      -0.03053641       0.00000000       0.00000000       0.00013676       0.00000000       0.00000000       0.00000000      -0.01609798
Cl       5.00000000       5.00000000       2.50000000       0.00000000       0.00000000       0.00000000       0.00000000       0.00000000       0.00010359       0.00000000       0.00000000       0.00000000      -0.01083745
Na       5.00000000       5.00000000       5.00000000       0.00000000       0.00000000       0.00000000       0.00000000       0.00000000       0.00010359       0.00000000       0.00000000       0.00000000      -0.01083745
Cl       5.00000000       5.00000000       7.50000000       0.00000000       0.00000000       0.03053641       0.00000000       0.00000000       0.00013676       0.00000000       0.00000000       0.00000000      -0.01609798
