16
Lattice="10.2 0.0 0.0 0.0 10.2 0.0 0.0 0.0 10.2" Properties=species:S:1:pos:R:3:forces:R:3:stresses:R:6:energies:R:1 energy=-0.14932382297870483 stress="0.0 0.0 0.0 0.0 0.0 0.0 0.0 0.0 0.001334797618029487" free_energy=-0.14932382297870483 pbc="T T T"
Na       0.00000000       0.00000000       0.00000000       0.00000000       0.00000000       0.01617415       0.00000000       0.00000000       0.00007497       0.00000000       0.00000000       0.00000000      -0.00782803
Cl       0.00000000       0.00000000       2.50000000       0.00000000       0.00000000       0.00000000       0.00000000       0.00000000       0.00009188       0.00000000       0.00000000       0.00000000      -0.01083745
Na       0.00000000       0.00000000       5.00000000       0.00000000       0.00000000       0.00000000       0.00000000       0.00000000       0.00009188       0.00000000       0.00000000       0.00000000      -0.01083745
Cl       0.00000000       0.00000000       7.50000000       0.00000000       0.00000000      -0.01617415       0.00000000       0.00000000       0.00007497       0.00000000       0.00000000       0.00000000      -0.00782803
Na       0.00000000       5.00000000       0.00000000       0.00000000       0.00000000       0.01617415       0.00000000       0.00000000       0.00007497       0.00000000       0.00000000       0.00000000      -0.00782803
Cl       0.00000000       5.00000000       2.50000000       0.00000000       0.00000000       0.00000000       0.00000000       0.00000000       0.00009188       0.00000000       0.00000000       0.00000000      -0.01083745
Na       0.00000000       5.00000000       5.00000000       0.00000000       0.00000000       0.00000000       0.00000000       0.00000000       0.00009188       0.00000000       0.00000000       0.00000000      -0.01083745
Cl       0.00000000       5.00000000       7.50000000       0.00000000       0.00000000      -0.01617415       0.00000000       0.00000000       0.00007497       0.00000000       0.00000000       0.00000000      -0.00782803
Na       5.00000000       0.00000000       0.00000000       0.00000000       0.00000000       0.01617415       0.00000000       0.00000000       0.00007497       0.00000000       0.00000000       0.00000000      -0.00782803
Cl       5.00000000       0.00000000       2.50000000       0.00000000       0.00000000       0.00000000       0.00000000       0.00000000       0.00009188       0.00000000       0.00000000       0.00000000      -0.01083745
Na       5.00000000       0.00000000       5.00000000       0.00000000       0.00000000       0.00000000       0.00000000       0.00000000       0.00009188       0.00000000       0.00000000       0.00000000      -0.01083745
Cl       5.00000000       0.00000000       7.50000000       0.00000000       0.00000000      -0.01617415       0.00000000       0.00000000       0.00007497       0.00000000       0.00000000       0.00000000      -0.00782803
Na       5.00000000       5.00000000       0.00000000       0.00000000       0.00000000       0.01617415       0.00000000       0.00000000       0.00007497       0.00000000       0.00000000       0.00000000      -0.00782803
Cl       5.00000000       5.00000000       2.50000000       0.00000000       0.00000000       0.00000000       0.00000000       0.00000000       0.00009188       0.00000000       0.00000000       0.00000000      -0.01083745
Na       5.00000000       5.00000000       5.00000000       0.00000000       0.00000000       0.00000000       0.00000000       0.00000000       0.00009188       0.00000000       0.00000000       0.00000000      -0.01083745
Cl       5.00000000       5.00000000       7.50000000       0.00000000       0.00000000      -0.01617415       0.00000000       0.00000000       0.00007497       0.00000000       0.00000000       0.00000000      -0.00782803
